# td=(50-50,nstates=3) b3lyp/6-31+g(d,p) geom=connectivity

Title Card Required

0 1
 C                 -0.45016400   -1.75483300   -1.87529900
 N                 -0.75274100   -0.91297900   -0.72702700
 C                 -2.08991300   -0.78781600   -0.31439900
 C                 -3.13148300   -1.70795000   -0.46348200
 C                 -4.38766000   -1.38009900    0.06505000
 C                 -4.60344300   -0.16456600    0.71907700
 C                 -3.54940200    0.75322400    0.85515300
 C                 -2.30204400    0.44255100    0.32985200
 C                 -0.99180200    1.21750600    0.38548000
 C                 -1.13607700    2.70559400    0.03288400
 C                 -0.37525600    1.07771800    1.79555700
 C                 -0.17388100    0.44333000   -0.72589400
 C                  1.33468900    0.45375200   -0.57302300
 C                  2.09222200    1.46639000   -1.17987700
 C                  3.47981200    1.52482000   -1.02271600
 C                  4.14198000    0.56042500   -0.26684900
 C                  3.39604400   -0.47000900    0.33185400
 C                  4.06466100   -1.48175600    1.10166000
 N                  4.60935900   -2.30050900    1.72431300
 C                  2.00100000   -0.51966900    0.17905100
 H                  0.63044400   -1.78608300   -2.03153900
 H                 -0.78760200   -2.77717400   -1.68799500
 H                 -0.92986000   -1.39002200   -2.80005900
 H                 -2.98358300   -2.65463800   -0.97246500
 H                 -5.20701100   -2.08496600   -0.04474900
 H                 -5.58561000    0.07366300    1.11543400
 H                 -3.71694900    1.70187700    1.35901900
 H                 -1.74797400    3.22146000    0.78036500
 H                 -0.15797700    3.20014300    0.01597500
 H                 -1.61225800    2.84179400   -0.94349900
 H                 -1.04754600    1.52890800    2.53242100
 H                 -0.23606800    0.02882300    2.07209700
 H                  0.59275700    1.58506600    1.86248800
 H                 -0.41405000    0.93318600   -1.68827800
 H                  1.59145300    2.21457600   -1.78868500
 H                  4.04593900    2.31880100   -1.49991200
 H                  5.21932900    0.58978500   -0.14407400
 H                  1.43454600   -1.32245300    0.63799100

 1 2 1.0 21 1.0 22 1.0 23 1.0
 2 3 1.0 12 1.0
 3 4 1.5 8 1.5
 4 5 1.5 24 1.0
 5 6 1.5 25 1.0
 6 7 1.5 26 1.0
 7 8 1.5 27 1.0
 8 9 1.0
 9 10 1.0 11 1.0 12 1.0
 10 28 1.0 29 1.0 30 1.0
 11 31 1.0 32 1.0 33 1.0
 12 13 1.0 34 1.0
 13 14 1.5 20 1.5
 14 15 1.5 35 1.0
 15 16 1.5 36 1.0
 16 17 1.5 37 1.0
 17 18 1.5 20 1.5
 18 19 3.0
 19
 20 38 1.0
 21
 22
 23
 24
 25
 26
 27
 28
 29
 30
 31
 32
 33
 34
 35
 36
 37
 38

