# td=(50-50,nstates=3) b3lyp/6-31+g(d,p) geom=connectivity

Title Card Required

0 1
 C                 -1.08584900    4.60097800    0.18058800
 C                 -0.23445400    3.37577600   -0.09672400
 O                 -1.09204700    2.22553300   -0.05138900
 C                 -0.54739200    0.99553800   -0.24215600
 C                  0.75125600    0.75381700   -0.51563400
 C                  1.26985100   -0.63459800   -0.74666700
 C                  2.60863400   -0.93463600    0.01739600
 C                  3.71136600   -0.10821900   -0.49904700
 N                  4.55907400    0.54661500   -0.94544100
 C                  2.46611200   -0.75726200    1.47375800
 N                  2.33179500   -0.63552900    2.61952600
 C                  0.28555800   -1.78355800   -0.46886800
 O                  0.70027300   -2.93699300   -0.46712000
 C                 -1.13359000   -1.43967500   -0.24904500
 C                 -2.07220900   -2.47534700   -0.12692800
 C                 -3.41356100   -2.18498300    0.10043400
 C                 -3.82017500   -0.85004400    0.21751700
 C                 -2.89553300    0.18830500    0.10741600
 C                 -1.54137700   -0.08980500   -0.12932700
 H                 -0.45973900    5.49844200    0.15188000
 H                 -1.87433300    4.70639100   -0.57046300
 H                 -1.55060300    4.53627200    1.16870700
 H                  0.55673600    3.26211100    0.65568200
 H                  0.23533700    3.43522300   -1.08756000
 H                  1.46415800    1.56286800   -0.62259900
 H                  1.52924700   -0.75014400   -1.81153300
 H                  2.84536300   -1.99076800   -0.16967500
 H                 -1.72262700   -3.49861400   -0.21443100
 H                 -4.13871000   -2.98793000    0.18849000
 H                 -4.86532500   -0.61645500    0.39869500
 H                 -3.21321400    1.21895100    0.20599600

 1 2 1.0 20 1.0 21 1.0 22 1.0
 2 3 1.0 23 1.0 24 1.0
 3 4 1.0
 4 5 2.0 19 1.0
 5 6 1.0 25 1.0
 6 7 1.0 12 1.0 26 1.0
 7 8 1.0 10 1.0 27 1.0
 8 9 3.0
 9
 10 11 3.0
 11
 12 13 2.0 14 1.0
 13
 14 15 1.5 19 1.5
 15 16 1.5 28 1.0
 16 17 1.5 29 1.0
 17 18 1.5 30 1.0
 18 19 1.5 31 1.0
 19
 20
 21
 22
 23
 24
 25
 26
 27
 28
 29
 30
 31

