# td=(50-50,nstates=3) b3lyp/6-31+g(d,p) geom=connectivity

Title Card Required

0 2
 C                  7.91866800   -1.40001100   -0.53549100
 C                  6.62751400   -1.83327900    0.16787000
 C                  5.44737800   -0.88974700   -0.10239300
 C                  4.16239000   -1.33408400    0.60536500
 C                  2.93198200   -0.46614200    0.40625400
 C                  2.92177800    0.69359800   -0.38205100
 C                  1.76964200    1.46293500   -0.53704500
 C                  0.56319700    1.09401600    0.09641100
 C                 -0.61822300    1.92048000   -0.05537800
 C                 -0.60942200    3.34953100   -0.26373700
 O                  0.26787200    4.13046100   -0.55796100
 O                 -1.90870500    3.82009300    0.00917600
 N                 -2.77210500    2.72003300    0.28239000
 N                 -1.90631600    1.55542200    0.27219600
 C                 -2.58933100    0.33309800    0.11388600
 C                 -2.14327700   -0.64080400   -0.79488600
 C                 -2.84959800   -1.83362300   -0.93604600
 C                 -4.01006900   -2.04471000   -0.18891900
 Cl                -4.90051300   -3.54511800   -0.37647300
 C                 -4.47237000   -1.07529600    0.70416000
 C                 -3.75899200    0.11073100    0.86103800
 C                  0.57147000   -0.07105700    0.89974300
 C                  1.72995400   -0.82282200    1.04500800
 H                  8.74032900   -2.09219600   -0.32268600
 H                  7.78538400   -1.36611600   -1.62327600
 H                  8.23186300   -0.40130000   -0.20908100
 H                  6.80324100   -1.89182200    1.25094000
 H                  6.35963700   -2.84950400   -0.15312600
 H                  5.27475300   -0.83368300   -1.18602000
 H                  5.71814200    0.12443400    0.22164300
 H                  4.35998500   -1.40758900    1.68473600
 H                  3.91808300   -2.35778800    0.28588500
 H                  3.82535100    1.01451600   -0.88931800
 H                  1.79902800    2.36063800   -1.14297100
 H                 -3.34302500    2.64331500   -0.57168700
 H                 -1.25161300   -0.46791500   -1.38560700
 H                 -2.50709100   -2.58916100   -1.63444500
 H                 -5.37342300   -1.25117800    1.28110600
 H                 -4.09583300    0.86149700    1.56751100
 H                 -0.32364500   -0.37231800    1.43255400
 H                  1.70700400   -1.70632700    1.67932300

 1 2 1.0 24 1.0 25 1.0 26 1.0
 2 3 1.0 27 1.0 28 1.0
 3 4 1.0 29 1.0 30 1.0
 4 5 1.0 31 1.0 32 1.0
 5 6 1.5 23 1.5
 6 7 1.5 33 1.0
 7 8 1.5 34 1.0
 8 9 1.0 22 1.5
 9 10 1.5 14 1.5
 10 11 2.0 12 1.0
 11
 12 13 1.0
 13 14 1.0 35 1.0
 14 15 1.0
 15 16 1.5 21 1.5
 16 17 1.5 36 1.0
 17 18 1.5 37 1.0
 18 19 1.0 20 1.5
 19
 20 21 1.5 38 1.0
 21 39 1.0
 22 23 1.5 40 1.0
 23 41 1.0
 24
 25
 26
 27
 28
 29
 30
 31
 32
 33
 34
 35
 36
 37
 38
 39
 40
 41

